*HEADING
cubit(./t01.inp): 10/24/2013: 10:34:20
version: 13.2
**
********************************** P A R T S **********************************
*PART, NAME=Part-Default
**
********************************** N O D E S **********************************
*NODE, NSET=ALLNODES
       1,   -2.900000e+04,   -2.900000e+04,    0.000000e+00
       2,   -2.900000e+04,   -2.819444e+04,    0.000000e+00
       3,   -2.819444e+04,   -2.819444e+04,    0.000000e+00
       4,   -2.819444e+04,   -2.900000e+04,    0.000000e+00
       5,   -2.900000e+04,   -2.900000e+04,   -1.000000e+03
       6,   -2.900000e+04,   -2.819444e+04,   -1.000000e+03
       7,   -2.819444e+04,   -2.819444e+04,   -1.000000e+03
       8,   -2.819444e+04,   -2.900000e+04,   -1.000000e+03
       9,   -2.900000e+04,   -2.738889e+04,    0.000000e+00
      10,   -2.819444e+04,   -2.738889e+04,    0.000000e+00
      11,   -2.900000e+04,   -2.738889e+04,   -1.000000e+03
      12,   -2.819444e+04,   -2.738889e+04,   -1.000000e+03
      13,   -2.900000e+04,   -2.658333e+04,    0.000000e+00
      14,   -2.819444e+04,   -2.658333e+04,    0.000000e+00
      15,   -2.900000e+04,   -2.658333e+04,   -1.000000e+03
      16,   -2.819444e+04,   -2.658333e+04,   -1.000000e+03
      17,   -2.900000e+04,   -2.577778e+04,    0.000000e+00
      18,   -2.819444e+04,   -2.577778e+04,    0.000000e+00
      19,   -2.900000e+04,   -2.577778e+04,   -1.000000e+03
      20,   -2.819444e+04,   -2.577778e+04,   -1.000000e+03
** ... 29421 like lines cut
**
********************************** E L E M E N T S ****************************
*ELEMENT, TYPE=C3D8R, ELSET=l01
       1,       1,       2,       3,       4,       5,       6,       7,       8
       2,       2,       9,      10,       3,       6,      11,      12,       7
       3,       9,      13,      14,      10,      11,      15,      16,      12
       4,      13,      17,      18,      14,      15,      19,      20,      16
       5,      17,      21,      22,      18,      19,      23,      24,      20
       6,      21,      25,      26,      22,      23,      27,      28,      24
       7,      25,      29,      30,      26,      27,      31,      32,      28
       8,      29,      33,      34,      30,      31,      35,      36,      32
       9,      33,      37,      38,      34,      35,      39,      40,      36
      10,      37,      41,      42,      38,      39,      43,      44,      40
      11,      41,      45,      46,      42,      43,      47,      48,      44
      12,      45,      49,      50,      46,      47,      51,      52,      48
      13,      49,      53,      54,      50,      51,      55,      56,      52
      14,      53,      57,      58,      54,      55,      59,      60,      56
      15,      57,      61,      62,      58,      59,      63,      64,      60
      16,      61,      65,      66,      62,      63,      67,      68,      64
      17,      65,      69,      70,      66,      67,      71,      72,      68
      18,      69,      73,      74,      70,      71,      75,      76,      72
      19,      73,      77,      78,      74,      75,      79,      80,      76
      20,      77,      81,      82,      78,      79,      83,      84,      80
** ... 5164 like lines cut
*ELEMENT, TYPE=C3D8R, ELSET=l02
    5185,   10659,   10660,   10661,   10662,   10663,   10664,   10665,   10666
    5186,   10660,   10667,   10668,   10661,   10664,   10669,   10670,   10665
    5187,   10667,   10671,   10672,   10668,   10669,   10673,   10674,   10670
    5188,   10671,   10675,   10676,   10672,   10673,   10677,   10678,   10674
    5189,   10675,   10679,   10680,   10676,   10677,   10681,   10682,   10678
    5190,   10679,   10683,   10684,   10680,   10681,   10685,   10686,   10682
    5191,   10683,   10687,   10688,   10684,   10685,   10689,   10690,   10686
    5192,   10687,   10691,   10692,   10688,   10689,   10693,   10694,   10690
    5193,   10691,   10695,   10696,   10692,   10693,   10697,   10698,   10694
    5194,   10695,   10699,   10700,   10696,   10697,   10701,   10702,   10698
    5195,   10699,   10703,   10704,   10700,   10701,   10705,   10706,   10702
    5196,   10703,   10707,   10708,   10704,   10705,   10709,   10710,   10706
    5197,   10707,   10711,   10712,   10708,   10709,   10713,   10714,   10710
    5198,   10662,   10661,   10715,   10716,   10666,   10665,   10717,   10718
    5199,   10661,   10668,   10719,   10715,   10665,   10670,   10720,   10717
    5200,   10668,   10672,   10721,   10719,   10670,   10674,   10722,   10720
    5201,   10672,   10676,   10723,   10721,   10674,   10678,   10724,   10722
    5202,   10676,   10680,   10725,   10723,   10678,   10682,   10726,   10724
    5203,   10680,   10684,   10727,   10725,   10682,   10686,   10728,   10726
    5204,   10684,   10688,   10729,   10727,   10686,   10690,   10730,   10728
** ... 20140 like lines cut
*ELEMENT, TYPE=S4R, ELSET=prx
   25345,   11332,   11334,   11333,   11331
   25346,   11334,   11696,   11695,   11333
   25347,   11696,   12046,   12045,   11695
   25348,   12046,   12396,   12395,   12045
   25349,   12396,   12746,   12745,   12395
   25350,   12746,   13096,   13095,   12745
   25351,   13096,   13446,   13445,   13095
   25352,   13446,   13796,   13795,   13445
   25353,   13796,   14146,   14145,   13795
   25354,   14146,   14496,   14495,   14145
   25355,   14496,   14846,   14845,   14495
   25356,   14846,   15196,   15195,   14845
   25357,   15196,   15546,   15545,   15195
   25358,   15546,   15896,   15895,   15545
   25359,   15896,   16246,   16245,   15895
   25360,   16246,   16596,   16595,   16245
   25361,   16596,   16946,   16945,   16595
   25362,   16946,   17296,   17295,   16945
   25363,   17296,   17646,   17645,   17295
   25364,   17646,   17996,   17995,   17645
** ... 2764 like lines cut
*ELEMENT, TYPE=S4R, ELSET=fsu
   28129,   10514,   10513,   10367,   10368
   28130,   10513,   10517,   10371,   10367
   28131,   10517,   10519,   10373,   10371
   28132,   10519,   10521,   10375,   10373
   28133,   10521,   10523,   10377,   10375
   28134,   10523,   10525,   10379,   10377
   28135,   10525,   10527,   10381,   10379
   28136,   10527,   10529,   10383,   10381
   28137,   10529,   10531,   10385,   10383
   28138,   10531,   10533,   10387,   10385
   28139,   10533,   10535,   10389,   10387
   28140,   10535,   10537,   10391,   10389
   28141,   10537,   10539,   10393,   10391
   28142,   10539,   10541,   10395,   10393
   28143,   10541,   10543,   10397,   10395
   28144,   10543,   10545,   10399,   10397
   28145,   10545,   10547,   10401,   10399
   28146,   10547,   10549,   10403,   10401
   28147,   10549,   10551,   10405,   10403
   28148,   10551,   10553,   10407,   10405
** ... 5164 like lines cut
**
********************************** P R O P E R T I E S ************************
*SOLID SECTION, ELSET=l01, MATERIAL=Default-Steel
*SOLID SECTION, ELSET=l02, MATERIAL=Default-Steel
*SHELL SECTION, ELSET=prx, SECTION INTEGRATION=SIMPSON, MATERIAL=Default-Steel
1.000000e+00
*SHELL SECTION, ELSET=fsu, SECTION INTEGRATION=SIMPSON, MATERIAL=Default-Steel
1.000000e+00
**
*END PART
**
**
**
********************************** E N D   P A R T S **********************************
**
**
********************************** A S S E M B L Y ************************************
**
*ASSEMBLY, NAME=ASSEMBLY1
**
*INSTANCE, NAME=Part-Default_1, PART=Part-Default
*END INSTANCE
**
*END ASSEMBLY
**
**
**
*MATERIAL, NAME = Default-Steel
*ELASTIC, TYPE=ISOTROPIC
2.068000e+05, 2.900000e-01
*DENSITY
7.000000e-06
*CONDUCTIVITY,TYPE=ISO
4.500000e-02
*SPECIFIC HEAT
5.000000e+02
**
**
************************************** H I S T O R Y *************************************
**
*PREPRINT
**
**************************************** S T E P 1 ***************************************
*STEP,INC=100,NAME=Default Set
**
*STATIC
1, 1, 1e-05, 1
**
**
**
**
*END STEP
